FoamFile
{
    version     2.0;
    format      ascii;
    class       dictionary;
    object      fvSolution;
}

solvers
{
    Phi
    {
        solver          GAMG;
        tolerance       1e-06;
        relTol          0.01;
        smoother        GaussSeidel;
    }

    p
    {
        solver          GAMG;
        tolerance       1e-06;
        relTol          0.1;
        smoother        GaussSeidel;
    }
    pFinal
    {
        $p;
        relTol          0;
    }

    "(U|k|omega|T)"
    {
        solver          smoothSolver;
        smoother        GaussSeidel;
        tolerance       1e-08;
        relTol          0.1;
    }
    "(U|k|omega|T)Final"
    {
        $U;
        relTol          0;
    }
}

PIMPLE
{
    nOuterCorrectors 1;
    nCorrectors      2;
    nNonOrthogonalCorrectors 0;
}

SIMPLE
{
    nNonOrthogonalCorrectors 0;
    consistent      no;
    residualControl
    {
        p               1e-4;
        U               1e-4;
        "(k|omega)"     1e-4;
    }
}

relaxationFactors
{
    fields
    {
        p               0.3;
    }
    equations
    {
        U               0.7;
        "(k|omega)"     0.7;
    }
}
